
**** 04/23/19 23:09:27 ***** PSpice 16.6.0 (October 2012) ***** ID# 0 ********

 ** Profile: "SCHEMATIC1-1"  [ F:\Mega\ponkin-prjs\OrCAD Pspice\voltage_multiplier\voltage_multiplier-pspicefiles\schematic1\1.sim ] 


 ****     CIRCUIT DESCRIPTION


******************************************************************************




** Creating circuit file "1.cir" 
** WARNING: THIS AUTOMATICALLY GENERATED FILE MAY BE OVERWRITTEN BY SUBSEQUENT SIMULATIONS

*Libraries: 
* Profile Libraries :
* Local Libraries :
* From [PSPICE NETLIST] section of C:\Users\D_LHEP_DESKTOP\AppData\Roaming\SPB_Data\cdssetup\OrCAD_PSpice/16.6.0/PSpice.ini file:
.lib "nom.lib" 

*Analysis directives: 
.TRAN  0 10ms 0 0.1ms SKIPBP 
.OPTIONS ADVCONV
.PROBE64 V(alias(*)) I(alias(*)) W(alias(*)) D(alias(*)) NOISE(alias(*)) 
.INC "..\SCHEMATIC1.net" 



**** INCLUDING SCHEMATIC1.net ****
* source VOLTAGE_MULTIPLIER
C_C1         N14840 N14756  0.01u  TC=0,0 
D_D1         N14716 N15446 Dbreak 
C_C2         N14716 N14840  0.01u  TC=0,0 
D_D2         N15043 N14716 Dbreak 
D_D3         N14756 N15043 Dbreak 
D_D4         0 N14756 Dbreak 
V_V1         N14840 N15043  AC 1
+SIN 0 3200 15k 0 0 0
C_C3         N15446 N17727  0.01u  TC=0,0 
C_C4         N17727 N15043  0.01u  TC=0,0 
C_C5         N15043 N18570  0.01u  TC=0,0 
C_C6         N18570 0  0.01u  TC=0,0 
R_R2         0 N15446  2MEG TC=0,0 
R_R3         N18570 N15043  100M TC=0,0 
R_R4         N15043 N17727  100M TC=0,0 
C_C8         N22336 N22382  0.01u  TC=0,0 
R_R10         N22948 N22376  1R TC=0,0 
C_C9         N22414 N22514  0.01u  TC=0,0 
D_D8         0 N22376 Dbreak 
D_D5         N22336 N22414 Dbreak 
R_R6         N22959 N22955  3M TC=0,0 
R_R9         N22392 N22514  100M TC=0,0 
R_R8         N22656 N22392  100M TC=0,0 
V_V2         N22948 N22959  AC 1
+SIN 0 3000 15k 0 0 0
C_C10         N22514 N22392  0.01u  TC=0,0 
C_C11         N22392 N22656  0.01u  TC=0,0 
R_R7         0 N22414  2MEG TC=0,0 
C_C7         N22382 N22376  0.01u  TC=0,0 
D_D6         N22392 N22336 Dbreak 
C_C12         N22656 0  0.01u  TC=0,0 
D_D7         N22376 N22392 Dbreak 
C_C13         N22955 0  0.01u  TC=0,0 
R_R11         N22382 N22336  100M TC=0,0 
C_C14         N22414 0  0.1uF  TC=0,0 
C_C15         N15446 0  0.1uF  TC=0,0 
V_V3         N27016 N27049  AC 1
+SIN 0 3100 15k 0 0 0
D_D9         N27049 N27156 Dbreak 
R_R14         N27049 N27341  5MEG TC=0,0 
C_C23         N27016 N27156  0.1u  TC=0,0 
C_C24         N27016 N27220  0.1u  TC=0,0 
D_D10         N27220 N27049 Dbreak 
C_C25         N27049 N27341  0.1u  TC=0,0 
D_D11         N27156 N27341 Dbreak 
D_D12         0 N27220 Dbreak 
C_C26         0 N27049  0.1u  TC=0,0 
R_R15         0 N27049  5MEG TC=0,0 
R_R16         0 N27341  6MEG TC=0,0 
R_R21         N33264 N33228  10k TC=0,0 
E_U2         N33276 0 VALUE {LIMIT(V(N33228,N33200)*1E6,-15V,+15V)}
R_R22         N33200 N35514  2.7k TC=0,0 
V_V5         N33264 0 12
R_R23         0 N33276  1k TC=0,0 
R_R24         0 N33228  3.9k TC=0,0 
V_V6         0 N34659 12V
R_R27         0 N34655  1k TC=0,0 
E_U3         N34655 0 VALUE {LIMIT(V(N34739,N34639)*1E6,-15V,+15V)}
R_R26         N34639 N35551  2.7k TC=0,0 
R_R25         N34659 N34639  10k TC=0,0 
R_R30         N35514 N33276  1R TC=0,0 
E_U5         N40634 0 VALUE {LIMIT(V(0,N40610)*1E6,-15V,+15V)}
R_R38         0 N40634  1MEG TC=0,0 
R_R37         N40610 N40634  5.6k TC=0,0 
R_R40         N41866 N40610  3.3k TC=0,0 
R_R41         N41566 N41580  10k TC=0,0 
R_R44         N41684 N41566  10k TC=0,0 
E_U6         N41580 0 VALUE {LIMIT(V(0,N41566)*1E6,-15V,+15V)}
R_R43         0 N41684  100 TC=0,0 
I_I4         0 N41684 DC 3ma  
R_R42         0 N41580  1k TC=0,0 
R_R29         N35551 N34655  100R TC=0,0 
R_R28         0 N34739  3.9k TC=0,0 
V_V7         0 N50547 12000
R_R45         N50547 N41866  600k TC=0,0 
R_R46         0 N41866  1k TC=0,0 
R_R47         N55596 0  1k TC=0,0 
V_V8         N55596 0 100V
X_Q1         N556512 N56273 0 awb2n3904 PARAMS:                                
+             
V_V10         N56025 0 12V
R_R48         N55900 N56273  100 TC=0,0 
R_R49         N556512 N56025  50R TC=0,0 
V_V11         N55900 0  
+PULSE 0 3.3 1m 0.01ms 0.01ms 1ms 2ms

**** RESUMING 1.cir ****
.END

**** 04/23/19 23:09:27 ***** PSpice 16.6.0 (October 2012) ***** ID# 0 ********

 ** Profile: "SCHEMATIC1-1"  [ F:\Mega\ponkin-prjs\OrCAD Pspice\voltage_multiplier\voltage_multiplier-pspicefiles\schematic1\1.sim ] 


 ****     Diode MODEL PARAMETERS


******************************************************************************




               Dbreak          
          IS   10.000000E-15 
          RS     .1          
         CJO  100.000000E-15 


**** 04/23/19 23:09:27 ***** PSpice 16.6.0 (October 2012) ***** ID# 0 ********

 ** Profile: "SCHEMATIC1-1"  [ F:\Mega\ponkin-prjs\OrCAD Pspice\voltage_multiplier\voltage_multiplier-pspicefiles\schematic1\1.sim ] 


 ****     BJT MODEL PARAMETERS


******************************************************************************




               X_Q1.model4     
               NPN             
       LEVEL    1            
          IS  172.800000E-18 
          EG    1.206        
          BF  254.395        
          NF     .85         
         VAF   10            
         IKF     .016374     
         ISE    9.974460E-15 
          NE    1.20863      
          BR     .1          
          NR     .891964     
         VAR    7.74046      
         IKR     .163741     
         ISC    9.974460E-15 
          NC    2.84343      
         ISS    0            
          RB   28.3394       
         RBM     .01         
         IRB     .01         
          RE    1.339110E-03 
          RC    2.08353      
         CJE    4.566140E-12 
         VJE     .4          
         MJE     .245712     
         CJC    3.724850E-12 
         VJC     .4          
         MJC     .236002     
        XCJC     .8          
         CJS    0            
         VJS     .75         
         MJS     .5          
          FC     .519152     
          TF  481.412000E-12 
         XTF     .9628       
         VTF    9.52193      
         ITF     .011333     
          TR    1.303990E-06 
         XTB    1.20888      
         XTI    1.34879      
          KF    0            
          AF    1            
          CN    2.42         
           D     .87         



          JOB CONCLUDED

**** 04/23/19 23:09:27 ***** PSpice 16.6.0 (October 2012) ***** ID# 0 ********

 ** Profile: "SCHEMATIC1-1"  [ F:\Mega\ponkin-prjs\OrCAD Pspice\voltage_multiplier\voltage_multiplier-pspicefiles\schematic1\1.sim ] 


 ****     JOB STATISTICS SUMMARY


******************************************************************************



  Total job time (using Solver 1)   =        1.52
