
**** 11/14/18 12:05:56 ***** PSpice 16.6.0 (October 2012) ***** ID# 0 ********

 ** Profile: "SCHEMATIC1-bias"  [ F:\MEGA\PONKIN-PRJS\ORCAD PSPICE\Matt Amp\amp-pspicefiles\schematic1\bias.sim ] 


 ****     CIRCUIT DESCRIPTION


******************************************************************************




** Creating circuit file "bias.cir" 
** WARNING: THIS AUTOMATICALLY GENERATED FILE MAY BE OVERWRITTEN BY SUBSEQUENT SIMULATIONS

*Libraries: 
* Profile Libraries :
* Local Libraries :
* From [PSPICE NETLIST] section of C:\Users\D_LHEP_DESKTOP\AppData\Roaming\SPB_Data\cdssetup\OrCAD_PSpice/16.6.0/PSpice.ini file:
.lib "nom.lib" 

*Analysis directives: 
.TRAN  0 10ms 0.00001ms 
.OPTIONS ADVCONV
.PROBE64 V(alias(*)) I(alias(*)) W(alias(*)) D(alias(*)) NOISE(alias(*)) 
.INC "..\SCHEMATIC1.net" 



**** INCLUDING SCHEMATIC1.net ****
* source AMP
I_I1         0 N14419 DC 0Adc AC 0Aac
+PULSE 0 1uA 0 100n 100n 1ms 5ms
R_R1         N14419 0  100k TC=0,0 
R_R2         N145651 N14419  100k TC=0,0 
V_V1         N145651 0 (RNDC-0.5)/5
------------------------$
ERROR -- Expecting keyword STIMULUS, saw RNDC-0.5.


**** RESUMING bias.cir ****
.END
