
**** 08/08/18 22:59:36 ***** PSpice 16.6.0 (October 2012) ***** ID# 0 ********

 ** Profile: "SCHEMATIC1-bias"  [ F:\Mega\ponkin-prjs\OrCAD Pspice\isrc-pspicefiles\schematic1\bias.sim ] 


 ****     CIRCUIT DESCRIPTION


******************************************************************************




** Creating circuit file "bias.cir" 
** WARNING: THIS AUTOMATICALLY GENERATED FILE MAY BE OVERWRITTEN BY SUBSEQUENT SIMULATIONS

*Libraries: 
* Profile Libraries :
* Local Libraries :
* From [PSPICE NETLIST] section of C:\Users\D_LHEP_DESKTOP\AppData\Roaming\SPB_Data\cdssetup\OrCAD_PSpice/16.6.0/PSpice.ini file:
.lib "nom.lib" 

*Analysis directives: 
.TRAN  0 1ms 0 1us 
.OPTIONS ADVCONV
.PROBE64 V(alias(*)) I(alias(*)) W(alias(*)) D(alias(*)) NOISE(alias(*)) 
.INC "..\SCHEMATIC1.net" 



**** INCLUDING SCHEMATIC1.net ****
* source ISRC
X_U2         N01249 N01285 N000972 0 N01368 OPA336/BB
V_V3         N000972 0 5
R_R2         0 N01285  1k  
R_R3         N01368 N01285  1k  
R_R4         N03460 N01368  50  
V_V4         N01249 0  
+PULSE 0 0.1V 0 1us 1us 200us 200us

**** RESUMING bias.cir ****
.END

ERROR(ORPSIM-15141): Less than 2 connections at node N03460.
