
**** 03/26/19 12:14:50 ***** PSpice 16.6.0 (October 2012) ***** ID# 0 ********

 ** Profile: "SCHEMATIC1-bias"  [ F:\Mega\ponkin-prjs\OrCAD Pspice\isrc-pspicefiles\schematic1\bias.sim ] 


 ****     CIRCUIT DESCRIPTION


******************************************************************************




** Creating circuit file "bias.cir" 
** WARNING: THIS AUTOMATICALLY GENERATED FILE MAY BE OVERWRITTEN BY SUBSEQUENT SIMULATIONS

*Libraries: 
* Profile Libraries :
* Local Libraries :
* From [PSPICE NETLIST] section of C:\Users\D_LHEP_DESKTOP\AppData\Roaming\SPB_Data\cdssetup\OrCAD_PSpice/16.6.0/PSpice.ini file:
.lib "nom.lib" 

*Analysis directives: 
.TRAN  0 10ms 0 0.1ms 
.OPTIONS ADVCONV
.PROBE64 V(alias(*)) I(alias(*)) W(alias(*)) D(alias(*)) NOISE(alias(*)) 
.INC "..\SCHEMATIC1.net" 



**** INCLUDING SCHEMATIC1.net ****
* source ISRC
R_R1         0 N01285  1.1k  
R_R2         N01368 N01285  9.1k  
R_R4         0 N01368  1k  
V_V4         N01249 0  
+PULSE 0 0.1V 0 3us 3us 100us 200us
E_U3         N01368 0 VALUE {LIMIT(V(N01249,N01285)*1E6,-15V,+15V)}
V_V6         N08509 0 12
E_U4         N08658 0 VALUE {LIMIT(V(N08524,N08581)*1E6,-15V,+15V)}
R_R7         N08518 N08524  0,1R  
----------------------------$
ERROR(ORPSIM-16144): Value may not be 0
R_R8         0 N08518  1R  
R_R9         N08518 N08509  300R  
R_R10         0 N08581  1k  
R_R11         N08581 N08658  5k  

**** RESUMING bias.cir ****
.END
